No_EVs/Output_No_EVs/output_voltage_1.csv
# Output_No_EVs\output_voltage_1.csv run at 2000-01-01 00:01:00 EST on 963 nodes
node_name,voltA_mag,voltA_angle,voltB_mag,voltB_angle,voltC_mag,voltC_angle
SourceBus,6668.395609,0.000000,6668.395609,4.188790,6668.395609,2.094395
Bus1,252.162474,-0.523800,252.165300,3.665032,252.169773,1.570653
Bus2,252.159638,-0.523797,252.163316,3.665031,252.168663,1.570655
Bus3,252.159341,-0.523797,252.163109,3.665031,252.168546,1.570655
Bus4,252.159062,-0.523797,252.162914,3.665030,252.168437,1.570655
Bus5,252.158819,-0.523797,252.162744,3.665030,252.168342,1.570655
Bus6,252.158437,-0.523796,252.162476,3.665030,252.168192,1.570655
Bus7,252.132388,-0.523770,252.144251,3.665022,252.157989,1.570672
Bus8,252.131221,-0.523769,252.143435,3.665021,252.157532,1.570673
Bus9,252.130250,-0.523768,252.142755,3.665021,252.157152,1.570674
Bus10,252.129398,-0.523767,252.142159,3.665021,252.156818,1.570674
Bus11,252.128762,-0.523766,252.141714,3.665021,252.156569,1.570675
Bus12,252.128165,-0.523765,252.141297,3.665020,252.156335,1.570675
Bus13,252.127798,-0.523765,252.141040,3.665020,252.156191,1.570675
Bus14,252.126884,-0.523764,252.140401,3.665020,252.155833,1.570676
Bus15,252.119481,-0.523757,252.135221,3.665017,252.152934,1.570681
Bus16,252.119481,-0.523757,252.135221,3.665017,252.152934,1.570681
Bus17,252.110504,-0.523747,252.128940,3.665015,252.149417,1.570686
Bus18,252.119481,-0.523757,252.135221,3.665017,252.152934,1.570681
Bus19,252.109887,-0.523747,252.128508,3.665014,252.149175,1.570687
Bus20,252.119481,-0.523757,252.135221,3.665017,252.152934,1.570681
Bus21,252.109193,-0.523746,252.128023,3.665014,252.148904,1.570687
Bus22,252.119481,-0.523757,252.135221,3.665017,252.152934,1.570681
Bus23,252.108064,-0.523745,252.127233,3.665014,252.148461,1.570688
Bus24,252.119481,-0.523757,252.135221,3.665017,252.152934,1.570681
Bus25,252.106009,-0.523743,252.125796,3.665013,252.147657,1.570689
Bus26,252.119481,-0.523757,252.135221,3.665017,252.152934,1.570681
Bus27,252.100857,-0.523738,252.125811,3.665013,252.147713,1.570690
Bus28,252.086258,-0.523722,252.107200,3.665015,252.135578,1.570699
Bus29,252.119481,-0.523757,252.135221,3.665017,252.152934,1.570681
Bus30,252.100579,-0.523738,252.125812,3.665013,252.147716,1.570690
Bus31,252.099744,-0.523737,252.125814,3.665013,252.147725,1.570690
Bus32,252.080999,-0.523717,252.102250,3.665016,252.132362,1.570701
Bus33,252.119481,-0.523757,252.135221,3.665017,252.152934,1.570681
Bus34,252.099943,-0.523737,252.125814,3.665013,252.147723,1.570690
Bus35,252.099707,-0.523737,252.125814,3.665013,252.147726,1.570690
Bus36,252.081033,-0.523716,252.099181,3.665019,252.132371,1.570701
Bus37,252.064114,-0.523703,252.090243,3.665015,252.122351,1.570714
Bus38,252.119481,-0.523757,252.135221,3.665017,252.152934,1.570681
Bus39,252.099652,-0.523737,252.125815,3.665013,252.147726,1.570690
Bus40,252.081034,-0.523716,252.099074,3.665019,252.132372,1.570701
Bus41,252.081038,-0.523716,252.098692,3.665019,252.132373,1.570701
Bus42,252.052396,-0.523694,252.081912,3.665014,252.115404,1.570723
Bus43,252.064114,-0.523703,252.090243,3.665015,252.122351,1.570714
Bus44,252.119481,-0.523757,252.135221,3.665017,252.152934,1.570681
Bus45,252.099583,-0.523737,252.125815,3.665013,252.147727,1.570690
Bus46,252.081035,-0.523716,252.099027,3.665019,252.132372,1.570701
Bus47,252.081051,-0.523716,252.097518,3.665020,252.132376,1.570701
Bus48,252.043542,-0.523687,252.075616,3.665013,252.110154,1.570729
Bus49,252.064114,-0.523703,252.090243,3.665015,252.122351,1.570714
Bus50,252.119481,-0.523757,252.135221,3.665017,252.152934,1.570681
Bus51,252.099414,-0.523736,252.125815,3.665013,252.147729,1.570690
Bus52,252.081035,-0.523716,252.098976,3.665019,252.132372,1.570701
Bus53,252.042265,-0.523686,252.074708,3.665013,252.109397,1.570730
Bus54,252.043542,-0.523687,252.075616,3.665013,252.110154,1.570729
Bus55,252.064114,-0.523703,252.090243,3.665015,252.122351,1.570714
Bus56,252.119481,-0.523757,252.135221,3.665017,252.152934,1.570681
Bus57,252.099269,-0.523736,252.125816,3.665013,252.147730,1.570690
Bus58,252.081036,-0.523716,252.098928,3.665019,252.132372,1.570701
Bus59,252.036482,-0.523682,252.070597,3.665013,252.105969,1.570735
Bus60,252.043542,-0.523687,252.075616,3.665013,252.110154,1.570729
Bus61,252.064114,-0.523703,252.090243,3.665015,252.122351,1.570714
Bus62,252.119481,-0.523757,252.135221,3.665017,252.152934,1.570681
Bus63,252.098575,-0.523736,252.125818,3.665013,252.147738,1.570690
Bus64,252.081036,-0.523716,252.098899,3.665019,252.132372,1.570701
Bus65,252.035564,-0.523681,252.069736,3.665013,252.105186,1.570735
Bus66,252.030958,-0.523677,252.070613,3.665013,252.106029,1.570735
Bus67,252.043542,-0.523687,252.075616,3.665013,252.110154,1.570729
Bus68,252.064114,-0.523703,252.090243,3.665015,252.122351,1.570714
Bus69,252.119481,-0.523757,252.135221,3.665017,252.152934,1.570681
Bus70,252.096121,-0.523733,252.125825,3.665012,252.147765,1.570690
Bus71,252.081037,-0.523716,252.098842,3.665019,252.132372,1.570701
Bus72,252.024716,-0.523673,252.059564,3.665018,252.095939,1.570742
Bus73,252.030020,-0.523676,252.070616,3.665013,252.106040,1.570735
Bus74,252.029197,-0.523675,252.070619,3.665012,252.106049,1.570735
Bus75,252.043542,-0.523687,252.075616,3.665013,252.110154,1.570729
Bus76,252.064114,-0.523703,252.090243,3.665015,252.122351,1.570714
Bus77,252.119481,-0.523757,252.135221,3.665017,252.152934,1.570681
Bus78,252.081040,-0.523716,252.098554,3.665019,252.132373,1.570701
Bus79,252.020935,-0.523670,252.056018,3.665019,252.092716,1.570745
Bus80,252.043542,-0.523687,252.075616,3.665013,252.110154,1.570729
Bus81,252.064114,-0.523703,252.090243,3.665015,252.122351,1.570714
Bus82,252.119481,-0.523757,252.135221,3.665017,252.152934,1.570681
Bus83,252.081052,-0.523716,252.097469,3.665020,252.132377,1.570701
Bus84,252.020109,-0.523670,252.055244,3.665020,252.092012,1.570745
Bus85,252.043542,-0.523687,252.075616,3.665013,252.110154,1.570729
Bus86,252.064114,-0.523703,252.090243,3.665015,252.122351,1.570714
Bus87,252.119481,-0.523757,252.135221,3.665017,252.152934,1.570681
Bus88,252.018436,-0.523668,252.053675,3.665020,252.090586,1.570746
Bus89,252.043542,-0.523687,252.075616,3.665013,252.110154,1.570729
Bus90,252.064114,-0.523703,252.090243,3.665015,252.122351,1.570714
Bus91,252.119481,-0.523757,252.135221,3.665017,252.152934,1.570681
Bus92,252.016858,-0.523667,252.052195,3.665021,252.089240,1.570747
Bus93,252.064114,-0.523703,252.090243,3.665015,252.122351,1.570714
Bus94,252.119481,-0.523757,252.135221,3.665017,252.152934,1.570681
Bus95,252.015941,-0.523667,252.051335,3.665021,252.088459,1.570748
Bus96,252.064114,-0.523703,252.090243,3.665015,252.122351,1.570714
Bus97,252.119481,-0.523757,252.135221,3.665017,252.152934,1.570681
Bus98,252.015335,-0.523666,252.050767,3.665022,252.087942,1.570748
Bus99,252.064114,-0.523703,252.090243,3.665015,252.122351,1.570714
Bus100,252.119481,-0.523757,252.135221,3.665017,252.152934,1.570681
Bus101,252.014498,-0.523666,252.049983,3.665022,252.087229,1.570749
Bus102,252.064114,-0.523703,252.090243,3.665015,252.122351,1.570714
Bus103,252.119481,-0.523757,252.135221,3.665017,252.152934,1.570681
Bus104,252.014492,-0.523666,252.049960,3.665022,252.087215,1.570749
Bus105,252.013977,-0.523665,252.049577,3.665022,252.086827,1.570749
Bus106,252.064114,-0.523703,252.090243,3.665015,252.122351,1.570714
Bus107,252.014484,-0.523666,252.049933,3.665022,252.087199,1.570748
Bus108,252.013681,-0.523665,252.049347,3.665022,252.086600,1.570749
Bus109,252.064114,-0.523703,252.090243,3.665015,252.122351,1.570714
Bus110,252.014474,-0.523666,252.049902,3.665022,252.087179,1.570748
Bus111,252.002016,-0.523658,252.040274,3.665025,252.077610,1.570758
Bus112,252.064114,-0.523703,252.090243,3.665015,252.122351,1.570714
Bus113,252.014460,-0.523666,252.049853,3.665022,252.087149,1.570748
Bus114,252.000847,-0.523657,252.039365,3.665025,252.076710,1.570759
Bus115,252.064114,-0.523703,252.090243,3.665015,252.122351,1.570714
Bus116,252.014441,-0.523666,252.049791,3.665022,252.087111,1.570748
Bus117,252.000837,-0.523657,252.039323,3.665025,252.076640,1.570759
Bus118,251.997320,-0.523655,252.036926,3.665024,252.074574,1.570761
Bus119,252.064114,-0.523703,252.090243,3.665015,252.122351,1.570714
Bus120,252.014428,-0.523666,252.049747,3.665022,252.087084,1.570748
Bus121,252.000837,-0.523657,252.039323,3.665025,252.076640,1.570759
Bus122,252.000832,-0.523657,252.039303,3.665025,252.076606,1.570759
Bus123,251.990958,-0.523653,252.032528,3.665021,252.070723,1.570764
Bus124,252.064114,-0.523703,252.090243,3.665015,252.122351,1.570714
Bus125,252.014409,-0.523666,252.049684,3.665022,252.087045,1.570748
Bus126,252.000837,-0.523657,252.039323,3.665025,252.076640,1.570759
Bus127,252.000808,-0.523657,252.039208,3.665025,252.076447,1.570759
Bus128,251.988098,-0.523652,252.030551,3.665020,252.068991,1.570766
Bus129,252.064114,-0.523703,252.090243,3.665015,252.122351,1.570714
Bus130,252.014389,-0.523666,252.049616,3.665022,252.087004,1.570748
Bus131,252.000837,-0.523657,252.039323,3.665025,252.076640,1.570759
Bus132,251.999884,-0.523656,252.039211,3.665025,252.076457,1.570759
Bus133,252.001016,-0.523657,252.038910,3.665025,252.075910,1.570758
Bus134,251.987247,-0.523652,252.029962,3.665020,252.068476,1.570766
Bus135,252.064114,-0.523703,252.090243,3.665015,252.122351,1.570714
Bus136,252.014370,-0.523666,252.049552,3.665022,252.086964,1.570748
Bus137,252.000837,-0.523657,252.039323,3.665025,252.076640,1.570759
Bus138,251.999804,-0.523656,252.039211,3.665025,252.076458,1.570759
Bus139,252.001171,-0.523658,252.038688,3.665026,252.075511,1.570757
Bus140,251.986286,-0.523651,252.029298,3.665020,252.067894,1.570766
Bus141,252.064114,-0.523703,252.090243,3.665015,252.122351,1.570714
Bus142,252.014339,-0.523666,252.049446,3.665022,252.086899,1.570748
Bus143,252.000837,-0.523657,252.039323,3.665025,252.076640,1.570759
Bus144,251.999726,-0.523656,252.039211,3.665025,252.076459,1.570759
Bus145,252.001274,-0.523658,252.038540,3.665026,252.075243,1.570757
Bus146,251.985382,-0.523651,252.028673,3.665019,252.067347,1.570767
Bus147,252.064114,-0.523703,252.090243,3.665015,252.122351,1.570714
Bus148,252.014189,-0.523666,252.048945,3.665021,252.086591,1.570747
Bus149,252.000837,-0.523657,252.039323,3.665025,252.076640,1.570759
Bus150,251.999663,-0.523656,252.039211,3.665025,252.076459,1.570759
Bus151,252.001304,-0.523658,252.038630,3.665026,252.074952,1.570757
Bus152,252.001298,-0.523658,252.036373,3.665028,252.075250,1.570756
Bus153,251.984328,-0.523651,252.027944,3.665019,252.066709,1.570767
Bus154,252.064114,-0.523703,252.090243,3.665015,252.122351,1.570714
Bus155,252.014156,-0.523666,252.048836,3.665021,252.086524,1.570747
Bus156,252.000837,-0.523657,252.039323,3.665025,252.076640,1.570759
Bus157,251.999568,-0.523656,252.039212,3.665025,252.076460,1.570759
Bus158,252.001384,-0.523660,252.038868,3.665027,252.074179,1.570756
Bus159,252.001299,-0.523658,252.036241,3.665028,252.075250,1.570756
Bus160,251.984025,-0.523650,252.027735,3.665019,252.066525,1.570768
Bus161,252.064114,-0.523703,252.090243,3.665015,252.122351,1.570714
Bus162,252.014186,-0.523666,252.046106,3.665024,252.086532,1.570747
Bus163,252.013974,-0.523666,252.048616,3.665021,252.086250,1.570746
Bus164,252.000837,-0.523657,252.039323,3.665025,252.076640,1.570759
Bus165,251.999454,-0.523656,252.039212,3.665025,252.076462,1.570759
Bus166,252.001411,-0.523660,252.038951,3.665028,252.073910,1.570756
Bus167,252.001301,-0.523658,252.036121,3.665028,252.075251,1.570756
Bus168,251.982301,-0.523650,252.026543,3.665018,252.065481,1.570768
Bus169,252.064114,-0.523703,252.090243,3.665015,252.122351,1.570714
Bus170,252.014192,-0.523666,252.045591,3.665024,252.086534,1.570746
Bus171,252.013731,-0.523667,252.048325,3.665021,252.085886,1.570746
Bus172,252.000837,-0.523657,252.039323,3.665025,252.076640,1.570759
Bus173,251.999368,-0.523656,252.039212,3.665025,252.076463,1.570759
Bus174,252.001411,-0.523660,252.038951,3.665028,252.073910,1.570756
Bus175,252.001418,-0.523660,252.038974,3.665028,252.071736,1.570758
Bus176,252.001301,-0.523658,252.036071,3.665028,252.075251,1.570756
Bus177,251.981328,-0.523649,252.025870,3.665018,252.064892,1.570769
Bus178,252.014204,-0.523666,252.044527,3.665025,252.086537,1.570746
Bus179,252.013680,-0.523667,252.048247,3.665021,252.085919,1.570746
Bus180,252.013734,-0.523667,252.048339,3.665021,252.084669,1.570747
Bus181,252.000837,-0.523657,252.039323,3.665025,252.076640,1.570759
Bus182,251.999268,-0.523656,252.039213,3.665025,252.076464,1.570759
Bus183,252.001411,-0.523660,252.038951,3.665028,252.073910,1.570756
Bus184,252.001419,-0.523660,252.038977,3.665028,252.071502,1.570759
Bus185,252.001302,-0.523658,252.035963,3.665029,252.075251,1.570756
Bus186,251.980605,-0.523649,252.025371,3.665018,252.064455,1.570769
Bus187,252.013481,-0.523666,252.047941,3.665020,252.086047,1.570746
Bus188,252.013750,-0.523667,252.048394,3.665021,252.079628,1.570752
Bus189,252.000837,-0.523657,252.039323,3.665025,252.076640,1.570759
Bus190,251.999174,-0.523655,252.039213,3.665025,252.076465,1.570759
Bus191,252.001411,-0.523660,252.038951,3.665028,252.073910,1.570756
Bus192,252.001411,-0.523660,252.038951,3.665028,252.073910,1.570756
Bus193,252.001419,-0.523660,252.038979,3.665028,252.071274,1.570759
Bus194,252.001305,-0.523658,252.035688,3.665029,252.075252,1.570756
Bus195,251.979955,-0.523649,252.024921,3.665017,252.064061,1.570770
Bus196,252.013126,-0.523666,252.047393,3.665019,252.086276,1.570745
Bus197,252.013751,-0.523667,252.048399,3.665021,252.079136,1.570752
Bus198,252.013750,-0.523667,252.048397,3.665021,252.079343,1.570752
Bus199,252.000837,-0.523657,252.039323,3.665025,252.076640,1.570759
Bus200,251.999073,-0.523655,252.039213,3.665025,252.076466,1.570759
...
SourceBus_1,6668.187482,-0.000043,6668.230593,4.188755,6668.251481,2.094350
LOAD1,252.099943,-0.523737,252.125814,3.665013,252.147723,1.570690
LOAD2,252.081051,-0.523716,252.097518,3.665020,252.132376,1.570701
LOAD3,252.096121,-0.523733,252.125825,3.665012,252.147765,1.570690
LOAD4,252.030020,-0.523676,252.070616,3.665013,252.106040,1.570735
LOAD5,252.029197,-0.523675,252.070619,3.665012,252.106049,1.570735
LOAD6,252.081052,-0.523716,252.097469,3.665020,252.132377,1.570701
LOAD7,252.014204,-0.523666,252.044527,3.665025,252.086537,1.570746
LOAD8,252.013755,-0.523667,252.048413,3.665021,252.077890,1.570754
LOAD9,252.005507,-0.523658,252.047416,3.665018,252.086359,1.570745
LOAD10,252.013373,-0.523665,252.039382,3.665026,252.086354,1.570744
LOAD11,252.013373,-0.523665,252.039357,3.665026,252.086354,1.570744
LOAD12,252.013756,-0.523667,252.048416,3.665021,252.077557,1.570754
LOAD13,252.001342,-0.523658,252.032380,3.665032,252.075262,1.570756
LOAD14,251.997337,-0.523654,252.039218,3.665025,252.076485,1.570759
LOAD15,252.001337,-0.523658,252.032792,3.665032,252.075261,1.570756
LOAD16,252.001433,-0.523661,252.039029,3.665028,252.066707,1.570763
LOAD17,252.001430,-0.523661,252.039019,3.665028,252.067662,1.570762
LOAD18,251.953138,-0.523624,252.005498,3.665002,252.052092,1.570784
LOAD19,251.970166,-0.523646,252.017843,3.665015,252.054169,1.570778
LOAD20,251.956202,-0.523631,252.010530,3.665006,252.055600,1.570779
LOAD21,251.970134,-0.523643,252.020572,3.665015,252.060281,1.570773
LOAD22,251.955908,-0.523630,252.010531,3.665006,252.055603,1.570779
LOAD23,251.949190,-0.523615,251.997847,3.665002,252.056478,1.570781
LOAD24,251.962998,-0.523644,252.011110,3.665015,252.045691,1.570782
LOAD25,251.911294,-0.523558,251.983778,3.664960,252.063365,1.570795
LOAD26,251.948939,-0.523628,251.990294,3.665016,252.042634,1.570772
LOAD27,251.960056,-0.523643,252.007622,3.665017,252.040700,1.570783
LOAD28,251.960059,-0.523643,252.007634,3.665017,252.039533,1.570784
LOAD29,251.908555,-0.523548,251.977381,3.664961,252.063104,1.570790
LOAD30,251.911841,-0.523559,251.983777,3.664960,252.063359,1.570795
LOAD31,251.908311,-0.523548,251.977382,3.664961,252.063106,1.570790
LOAD32,251.945216,-0.523625,251.989990,3.665011,252.037961,1.570776
LOAD33,251.917923,-0.523552,251.971068,3.664973,252.056491,1.570783
LOAD34,251.920587,-0.523573,251.988737,3.664967,252.062073,1.570793
LOAD35,251.918461,-0.523550,251.965372,3.664978,252.060326,1.570777
LOAD36,251.917453,-0.523551,251.964490,3.664977,252.061367,1.570780
LOAD37,251.917457,-0.523551,251.964095,3.664977,252.061369,1.570780
LOAD38,251.940684,-0.523621,251.982974,3.665011,252.039808,1.570774
LOAD39,251.936826,-0.523619,251.982996,3.665007,252.031289,1.570781
LOAD40,251.933991,-0.523613,251.976927,3.665007,252.037129,1.570773
LOAD41,251.927234,-0.523594,251.957950,3.665014,252.034947,1.570766
LOAD42,251.936828,-0.523619,251.983003,3.665007,252.030656,1.570782
LOAD43,251.922887,-0.523592,251.962314,3.665008,252.025518,1.570776
LOAD44,251.947596,-0.523627,251.988192,3.665016,252.042015,1.570772
LOAD45,251.927232,-0.523594,251.958179,3.665014,252.034946,1.570766
LOAD46,251.927471,-0.523609,251.985815,3.665006,252.039554,1.570776
LOAD47,251.922887,-0.523592,251.962313,3.665008,252.025644,1.570776
LOAD48,251.927244,-0.523608,251.985816,3.665006,252.039556,1.570776
LOAD49,251.926100,-0.523607,251.985819,3.665006,252.039569,1.570776
LOAD50,251.918909,-0.523571,251.944772,3.665011,252.035708,1.570759
LOAD51,251.922222,-0.523597,251.973804,3.665001,252.037032,1.570773
LOAD52,251.909499,-0.523569,251.956513,3.665000,252.035233,1.570768
LOAD53,251.918909,-0.523571,251.944190,3.665011,252.035708,1.570759
LOAD54,251.920480,-0.523596,251.973810,3.665001,252.037051,1.570774
LOAD55,251.909141,-0.523569,251.956537,3.664999,252.035322,1.570768
